14
	Energy:      -5.0721412
H          0.71559        0.17570        0.30226
C         -0.12715        0.33178       -0.37845
H          0.26846        0.69988       -1.33047
H         -0.60417       -0.63739       -0.55594
C         -1.11264        1.32159        0.22200
H         -1.46807        0.93571        1.18459
H         -0.59589        2.26731        0.42276
C         -2.29783        1.56640       -0.70978
H         -1.94240        1.96992       -1.66518
H         -2.80442        0.61878       -0.92654
C         -3.29597        2.53663       -0.09838
H         -3.70274        2.14169        0.83814
H         -2.82680        3.50318        0.11101
H         -4.13040        2.70560       -0.78619
